
  Mrv1780 06071816083D          

 16 16  0  0  0  0            999 V2000
   -0.0101    1.1440   -0.7900 C   0  0  2  0  0  0  0  0  0  0  0  0
    0.1940    0.4127    0.4523 C   0  0  0  0  0  0  0  0  0  0  0  0
    1.2993   -0.3002    0.7260 C   0  0  0  0  0  0  0  0  0  0  0  0
    2.4268   -0.4163   -0.1872 C   0  0  2  0  0  0  0  0  0  0  0  0
    2.4323    0.6340   -1.3340 C   0  0  1  0  0  0  0  0  0  0  0  0
    1.0081    0.8052   -1.9167 C   0  0  1  0  0  0  0  0  0  0  0  0
    0.0571    2.2095   -0.5590 H   0  0  0  0  0  0  0  0  0  0  0  0
   -1.0199    0.9417   -1.1555 H   0  0  0  0  0  0  0  0  0  0  0  0
   -0.5242    0.4502    1.1405 H   0  0  0  0  0  0  0  0  0  0  0  0
    1.3475   -0.7822    1.5956 H   0  0  0  0  0  0  0  0  0  0  0  0
    2.3966   -1.4174   -0.6221 H   0  0  0  0  0  0  0  0  0  0  0  0
    3.3554   -0.3238    0.3809 H   0  0  0  0  0  0  0  0  0  0  0  0
    2.7807    1.5999   -0.9542 H   0  0  0  0  0  0  0  0  0  0  0  0
    3.1217    0.3175   -2.1220 H   0  0  0  0  0  0  0  0  0  0  0  0
    0.7160   -0.1233   -2.4161 H   0  0  0  0  0  0  0  0  0  0  0  0
    1.0073    1.6002   -2.6672 H   0  0  0  0  0  0  0  0  0  0  0  0
  1  2  1  0  0  0  0
  2  3  2  0  0  0  0
  3  4  1  0  0  0  0
  4  5  1  0  0  0  0
  5  6  1  0  0  0  0
  1  6  1  0  0  0  0
  1  7  1  0  0  0  0
  1  8  1  0  0  0  0
  2  9  1  0  0  0  0
  3 10  1  0  0  0  0
  4 11  1  0  0  0  0
  4 12  1  0  0  0  0
  5 13  1  0  0  0  0
  5 14  1  0  0  0  0
  6 15  1  0  0  0  0
  6 16  1  0  0  0  0
M  END
$$$$
